/*--------------------------------*- C++ -*----------------------------------*\
| =========                 |                                                 |
| \\      /  F ield         | OpenFOAM: The Open Source CFD Toolbox           |
|  \\    /   O peration     | Version:  2.3.0                                 |
|   \\  /    A nd           | Web:      www.OpenFOAM.org                      |
|    \\/     M anipulation  |                                                 |
\*---------------------------------------------------------------------------*/
FoamFile
{
    version     2.0;
    format      ascii;
    class       dictionary;
    location    "constant";
    object      fvOptions;
}
// * * * * * * * * * * * * * * * * * * * * * * * * * * * * * * * * * * * * * //

porosity1
{
	type		explicitPorositySource;
	active		yes;

	explicitPorositySourceCoeffs
	{
		selectionMode cellZone;
		cellZone      fineSand;
		type          DarcyForchheimer;
		DarcyForchheimerCoeffs
		{
			d	d [0 -2 0 0 0 0 0] (160257158084.0 160257158084.0 160257158084.0);
			f	f [0 -1 0 0 0 0 0] (0 0 0);
			coordinateSystem
			{
				type	cartesian;
				origin	(0 0 0);
				coordinateRotation
				{
					type	axesRotation;
					e1		(0 0 1);
					e2		(0 1 0);
				}
			}
		}
	}
}
porosity2
{
	type		explicitPorositySource;
	active		yes;

	explicitPorositySourceCoeffs
	{
		selectionMode cellZone;
		cellZone      courseSand;
		type          DarcyForchheimer;
		DarcyForchheimerCoeffs
		{
			d	d [0 -2 0 0 0 0 0] (3693196363.61 3693196363.61 3693196363.61);
			f	f [0 -1 0 0 0 0 0] (0 0 0);
			coordinateSystem
			{
				type	cartesian;
				origin	(0 0 0);
				coordinateRotation
				{
					type	axesRotation;
					e1		(0 0 1);
					e2		(0 1 0);
				}
			}
		}
	}
}
