/*--------------------------------*- C++ -*----------------------------------*/

// File was generated by SwiftSnap, a Blender 3D addon.

FoamFile
{
    version     2.0;
    format      ascii;
    class       dictionary;
    object      blockMeshDict;
}
// * * * * * * * * * * * * * * * * * * * * * * * * * * * * * * * * * * * * * //

convertToMeters 1;

vertices
(
    (-0.13 -0.13 -0.20)
    (-0.13 -0.13 0.20)
    (-0.13 0.13 0.20)
    (-0.13 0.13 -0.20)
    (0.13 -0.13 -0.20)
    (0.13 -0.13 0.20)
    (0.13 0.13 0.20)
    (0.13 0.13 -0.20)
);

blocks
(
    hex (4 5 6 7 0 1 2 3) (60 40 40) simpleGrading (1 1 1)
);

edges
(
);
boundary
(
	inlet
	{
		type patch;
		faces
		(
			(1 2 6 5)
		);
	}
	outlet
	{
		type patch;
		faces
		(
			(0 4 7 3)
		);
	}
);
mergePatchPairs
(
);

