/*--------------------------------*- C++ -*----------------------------------*\
| =========                 |                                                 |
| \\      /  F ield         | OpenFOAM: The Open Source CFD Toolbox           |
|  \\    /   O peration     | Version:  2.3.0                                 |
|   \\  /    A nd           | Web:      www.OpenFOAM.org                      |
|    \\/     M anipulation  |                                                 |
\*---------------------------------------------------------------------------*/
FoamFile
{
    version     2.0;
    format      ascii;
    class       polyBoundaryMesh;
    location    "constant/polyMesh";
    object      boundary;
}
// * * * * * * * * * * * * * * * * * * * * * * * * * * * * * * * * * * * * * //

7
(
    defaultFaces
    {
        type            empty;
        inGroups        1(empty);
        nFaces          0;
        startFace       698200;
    }
    outlet
    {
        type            patch;
        nFaces          2012;
        startFace       698200;
    }
    wall
    {
        type            wall;
        inGroups        1(wall);
        nFaces          17228;
        startFace       700212;
    }
    inlet
    {
        type            patch;
        nFaces          2012;
        startFace       717440;
    }
    mirror
    {
        type            symmetryPlane;
        inGroups        1(symmetryPlane);
        nFaces          6844;
        startFace       719452;
    }
)

// ************************************************************************* //
