/*--------------------------------*- C++ -*----------------------------------*\
| =========                 |                                                 |
| \\      /  F ield         | OpenFOAM: The Open Source CFD Toolbox           |
|  \\    /   O peration     | Version:  v1606+                                |
|   \\  /    A nd           | Web:      www.OpenFOAM.com                      |
|    \\/     M anipulation  |                                                 |
\*---------------------------------------------------------------------------*/
FoamFile
{
    version     2.0;
    format      ascii;
    class       extendedFeatureEdgeMesh;
    location    "constant/extendedFeatureEdgeMesh";
    object      half.extendedFeatureEdgeMesh;
}
// * * * * * * * * * * * * * * * * * * * * * * * * * * * * * * * * * * * * * //

// points

1004
(
(-0.126999989 0 -0.203199998)
(0.127000004 0 -0.203199998)
(0.127000004 0 0.203199998)
(0.126997501 -0.000797525048 0.203199998)
(0.126997501 -0.000797525048 -0.203199998)
(0.126989976 -0.00159544498 0.203199998)
(0.126989976 -0.00159544498 -0.203199998)
(0.126977459 -0.00239331275 0.203199998)
(0.126977459 -0.00239331275 -0.203199998)
(0.126959905 -0.00319107622 0.203199998)
(0.126959905 -0.00319107622 -0.203199998)
(0.126937345 -0.00398872048 0.203199998)
(0.126937345 -0.00398872048 -0.203199998)
(0.126909792 -0.00478620082 0.203199998)
(0.126909792 -0.00478620082 -0.203199998)
(0.126877204 -0.00558350235 0.203199998)
(0.126877204 -0.00558350235 -0.203199998)
(0.126839623 -0.00638057292 0.203199998)
(0.126839623 -0.00638057292 -0.203199998)
(0.12679702 -0.00717739761 0.203199998)
(0.12679702 -0.00717739761 -0.203199998)
(0.126749426 -0.00797393918 0.203199998)
(0.126749426 -0.00797393918 -0.203199998)
(0.126696825 -0.00877016038 0.203199998)
(0.126696825 -0.00877016038 -0.203199998)
(0.126639217 -0.00956603885 0.203199998)
(0.126639217 -0.00956603885 -0.203199998)
(0.126576617 -0.0103615373 0.203199998)
(0.126576617 -0.0103615373 -0.203199998)
(0.126509011 -0.0111566335 0.203199998)
(0.126509011 -0.0111566335 -0.203199998)
(0.126436412 -0.0119512826 0.203199998)
(0.126436412 -0.0119512826 -0.203199998)
(0.126358822 -0.0127454624 0.203199998)
(0.126358822 -0.0127454624 -0.203199998)
(0.126276255 -0.0135391429 0.203199998)
(0.126276255 -0.0135391429 -0.203199998)
(0.126188695 -0.0143322796 0.203199998)
(0.126188695 -0.0143322796 -0.203199998)
(0.126096159 -0.0151248574 0.203199998)
(0.126096159 -0.0151248574 -0.203199998)
(0.125998631 -0.0159168392 0.203199998)
(0.125998631 -0.0159168392 -0.203199998)
(0.125896141 -0.0167081878 0.203199998)
(0.125896141 -0.0167081878 -0.203199998)
(0.125788674 -0.0174988806 0.203199998)
(0.125788674 -0.0174988806 -0.203199998)
(0.125676244 -0.0182888806 0.203199998)
(0.125676244 -0.0182888806 -0.203199998)
(0.125558853 -0.0190781578 0.203199998)
(0.125558853 -0.0190781578 -0.203199998)
(0.1254365 -0.0198666826 0.203199998)
(0.1254365 -0.0198666826 -0.203199998)
(0.125309199 -0.020654425 0.203199998)
(0.125309199 -0.020654425 -0.203199998)
(0.125176951 -0.0214413479 0.203199998)
(0.125176951 -0.0214413479 -0.203199998)
(0.125039756 -0.0222274289 0.203199998)
(0.125039756 -0.0222274289 -0.203199998)
(0.124897636 -0.0230126306 0.203199998)
(0.124897636 -0.0230126306 -0.203199998)
(0.124750577 -0.0237969235 0.203199998)
(0.124750577 -0.0237969235 -0.203199998)
(0.1245986 -0.0245802775 0.203199998)
(0.1245986 -0.0245802775 -0.203199998)
(0.124441706 -0.0253626592 0.203199998)
(0.124441706 -0.0253626592 -0.203199998)
(0.124279886 -0.0261440426 0.203199998)
(0.124279886 -0.0261440426 -0.203199998)
(0.124113165 -0.0269243903 0.203199998)
(0.124113165 -0.0269243903 -0.203199998)
(0.123941548 -0.0277036801 0.203199998)
(0.123941548 -0.0277036801 -0.203199998)
(0.123765036 -0.0284818709 0.203199998)
(0.123765036 -0.0284818709 -0.203199998)
(0.123583637 -0.0292589366 0.203199998)
(0.123583637 -0.0292589366 -0.203199998)
(0.123397358 -0.030034855 0.203199998)
(0.123397358 -0.030034855 -0.203199998)
(0.123206213 -0.0308095813 0.203199998)
(0.123206213 -0.0308095813 -0.203199998)
(0.123010203 -0.0315830931 0.203199998)
(0.123010203 -0.0315830931 -0.203199998)
(0.122809328 -0.032355357 0.203199998)
(0.122809328 -0.032355357 -0.203199998)
(0.12260361 -0.033126343 0.203199998)
(0.12260361 -0.033126343 -0.203199998)
(0.122393057 -0.0338960253 0.203199998)
(0.122393057 -0.0338960253 -0.203199998)
(0.122177668 -0.0346643664 0.203199998)
(0.122177668 -0.0346643664 -0.203199998)
(0.121957459 -0.0354313366 0.203199998)
(0.121957459 -0.0354313366 -0.203199998)
(0.121732429 -0.0361969136 0.203199998)
(0.121732429 -0.0361969136 -0.203199998)
(0.121502593 -0.03696106 0.203199998)
(0.121502593 -0.03696106 -0.203199998)
(0.121267967 -0.0377237424 0.203199998)
(0.121267967 -0.0377237424 -0.203199998)
(0.12102855 -0.0384849422 0.203199998)
(0.12102855 -0.0384849422 -0.203199998)
(0.120784357 -0.0392446183 0.203199998)
(0.120784357 -0.0392446183 -0.203199998)
(0.120535396 -0.0400027446 0.203199998)
(0.120535396 -0.0400027446 -0.203199998)
(0.120281674 -0.0407592952 0.203199998)
(0.120281674 -0.0407592952 -0.203199998)
(0.120023198 -0.0415142365 0.203199998)
(0.120023198 -0.0415142365 -0.203199998)
(0.119759992 -0.0422675349 0.203199998)
(0.119759992 -0.0422675349 -0.203199998)
(0.119492061 -0.0430191718 0.203199998)
(0.119492061 -0.0430191718 -0.203199998)
(0.1192194 -0.0437691025 0.203199998)
(0.1192194 -0.0437691025 -0.203199998)
(0.118942045 -0.0445173122 0.203199998)
(0.118942045 -0.0445173122 -0.203199998)
(0.118659988 -0.0452637561 0.203199998)
(0.118659988 -0.0452637561 -0.203199998)
(0.118373252 -0.0460084192 0.203199998)
(0.118373252 -0.0460084192 -0.203199998)
(0.118081838 -0.0467512645 0.203199998)
(0.118081838 -0.0467512645 -0.203199998)
(0.117785759 -0.0474922657 0.203199998)
(0.117785759 -0.0474922657 -0.203199998)
(0.117485039 -0.0482313894 0.203199998)
(0.117485039 -0.0482313894 -0.203199998)
(0.117179677 -0.0489686131 0.203199998)
(0.117179677 -0.0489686131 -0.203199998)
(0.116869688 -0.0497038998 0.203199998)
(0.116869688 -0.0497038998 -0.203199998)
(0.116555087 -0.0504372232 0.203199998)
(0.116555087 -0.0504372232 -0.203199998)
(0.116235875 -0.051168561 0.203199998)
(0.116235875 -0.051168561 -0.203199998)
(0.115912087 -0.0518978722 0.203199998)
(0.115912087 -0.0518978722 -0.203199998)
(0.115583718 -0.0526251383 0.203199998)
(0.115583718 -0.0526251383 -0.203199998)
(0.115250781 -0.0533503406 0.203199998)
(0.115250781 -0.0533503406 -0.203199998)
(0.114913292 -0.054073438 0.203199998)
(0.114913292 -0.054073438 -0.203199998)
(0.114571266 -0.0547943935 0.203199998)
(0.114571266 -0.0547943935 -0.203199998)
(0.114224717 -0.055513192 0.203199998)
(0.114224717 -0.055513192 -0.203199998)
(0.113873661 -0.0562297963 0.203199998)
(0.113873661 -0.0562297963 -0.203199998)
(0.113518111 -0.056944184 0.203199998)
(0.113518111 -0.056944184 -0.203199998)
(0.113158077 -0.0576563254 0.203199998)
(0.113158077 -0.0576563254 -0.203199998)
(0.112793565 -0.0583661869 0.203199998)
(0.112793565 -0.0583661869 -0.203199998)
(0.112424612 -0.0590737425 0.203199998)
(0.112424612 -0.0590737425 -0.203199998)
(0.112051219 -0.059778966 0.203199998)
(0.112051219 -0.059778966 -0.203199998)
(0.111673407 -0.0604818314 0.203199998)
(0.111673407 -0.0604818314 -0.203199998)
(0.111291178 -0.0611823089 0.203199998)
(0.111291178 -0.0611823089 -0.203199998)
(0.110904559 -0.0618803687 0.203199998)
(0.110904559 -0.0618803687 -0.203199998)
(0.11051356 -0.0625759885 0.203199998)
(0.11051356 -0.0625759885 -0.203199998)
(0.110118195 -0.0632691383 0.203199998)
(0.110118195 -0.0632691383 -0.203199998)
(0.109718494 -0.0639597848 0.203199998)
(0.109718494 -0.0639597848 -0.203199998)
(0.109314449 -0.064647913 0.203199998)
(0.109314449 -0.064647913 -0.203199998)
(0.10890609 -0.0653334856 0.203199998)
(0.10890609 -0.0653334856 -0.203199998)
(0.108493432 -0.0660164803 0.203199998)
(0.108493432 -0.0660164803 -0.203199998)
(0.108076498 -0.0666968673 0.203199998)
(0.108076498 -0.0666968673 -0.203199998)
(0.107655294 -0.0673746243 0.203199998)
(0.107655294 -0.0673746243 -0.203199998)
(0.107229829 -0.0680497214 0.203199998)
(0.107229829 -0.0680497214 -0.203199998)
(0.106800146 -0.0687221214 0.203199998)
(0.106800146 -0.0687221214 -0.203199998)
(0.106366239 -0.0693918169 0.203199998)
(0.106366239 -0.0693918169 -0.203199998)
(0.10592813 -0.0700587705 0.203199998)
(0.10592813 -0.0700587705 -0.203199998)
(0.105485842 -0.0707229599 0.203199998)
(0.105485842 -0.0707229599 -0.203199998)
(0.105039395 -0.0713843554 0.203199998)
(0.105039395 -0.0713843554 -0.203199998)
(0.104588792 -0.0720429346 0.203199998)
(0.104588792 -0.0720429346 -0.203199998)
(0.104134068 -0.0726986751 0.203199998)
(0.104134068 -0.0726986751 -0.203199998)
(0.103675231 -0.0733515397 0.203199998)
(0.103675231 -0.0733515397 -0.203199998)
(0.103212297 -0.074001506 0.203199998)
(0.103212297 -0.074001506 -0.203199998)
(0.102745295 -0.0746485516 0.203199998)
(0.102745295 -0.0746485516 -0.203199998)
(0.102274232 -0.0752926543 0.203199998)
(0.102274232 -0.0752926543 -0.203199998)
(0.10179913 -0.0759337768 0.203199998)
(0.10179913 -0.0759337768 -0.203199998)
(0.101320006 -0.0765719116 0.203199998)
(0.101320006 -0.0765719116 -0.203199998)
(0.100836888 -0.077207014 0.203199998)
(0.100836888 -0.077207014 -0.203199998)
(0.100349784 -0.0778390765 0.203199998)
(0.100349784 -0.0778390765 -0.203199998)
(0.0998587236 -0.078468062 0.203199998)
(0.0998587236 -0.078468062 -0.203199998)
(0.0993637219 -0.0790939406 0.203199998)
(0.0993637219 -0.0790939406 -0.203199998)
(0.0988647863 -0.0797167122 0.203199998)
(0.0988647863 -0.0797167122 -0.203199998)
(0.0983619615 -0.0803363249 0.203199998)
(0.0983619615 -0.0803363249 -0.203199998)
(0.0978552476 -0.080952771 0.203199998)
(0.0978552476 -0.080952771 -0.203199998)
(0.0973446667 -0.0815660283 0.203199998)
(0.0973446667 -0.0815660283 -0.203199998)
(0.0968302488 -0.0821760595 0.203199998)
(0.0968302488 -0.0821760595 -0.203199998)
(0.0963120088 -0.0827828422 0.203199998)
(0.0963120088 -0.0827828422 -0.203199998)
(0.0957899541 -0.0833863616 0.203199998)
(0.0957899541 -0.0833863616 -0.203199998)
(0.0952641293 -0.0839865878 0.203199998)
(0.0952641293 -0.0839865878 -0.203199998)
(0.0947345421 -0.0845834985 0.203199998)
(0.0947345421 -0.0845834985 -0.203199998)
(0.0942012146 -0.0851770639 0.203199998)
(0.0942012146 -0.0851770639 -0.203199998)
(0.0936641619 -0.0857672766 0.203199998)
(0.0936641619 -0.0857672766 -0.203199998)
(0.0931234211 -0.0863540918 0.203199998)
(0.0931234211 -0.0863540918 -0.203199998)
(0.0925789922 -0.086937502 0.203199998)
(0.0925789922 -0.086937502 -0.203199998)
(0.0920309201 -0.087517485 0.203199998)
(0.0920309201 -0.087517485 -0.203199998)
(0.091479212 -0.0880940184 0.203199998)
(0.091479212 -0.0880940184 -0.203199998)
(0.0909238905 -0.0886670575 0.203199998)
(0.0909238905 -0.0886670575 -0.203199998)
(0.0903649777 -0.0892366096 0.203199998)
(0.0903649777 -0.0892366096 -0.203199998)
(0.0898025036 -0.0898026302 0.203199998)
(0.0898025036 -0.0898026302 -0.203199998)
(0.0892364755 -0.0903651044 0.203199998)
(0.0892364755 -0.0903651044 -0.203199998)
(0.0886669308 -0.0909240171 0.203199998)
(0.0886669308 -0.0909240171 -0.203199998)
(0.0880938768 -0.0914793387 0.203199998)
(0.0880938768 -0.0914793387 -0.203199998)
(0.0875173584 -0.0920310467 0.203199998)
(0.0875173584 -0.0920310467 -0.203199998)
(0.0869373754 -0.0925791264 0.203199998)
(0.0869373754 -0.0925791264 -0.203199998)
(0.0863539651 -0.0931235403 0.203199998)
(0.0863539651 -0.0931235403 -0.203199998)
(0.085767135 -0.0936642885 0.203199998)
(0.085767135 -0.0936642885 -0.203199998)
(0.0851769298 -0.0942013338 0.203199998)
(0.0851769298 -0.0942013338 -0.203199998)
(0.084583357 -0.0947346687 0.203199998)
(0.084583357 -0.0947346687 -0.203199998)
(0.0839864537 -0.0952642485 0.203199998)
(0.0839864537 -0.0952642485 -0.203199998)
(0.08338622 -0.0957900807 0.203199998)
(0.08338622 -0.0957900807 -0.203199998)
(0.0827827007 -0.0963121206 0.203199998)
(0.0827827007 -0.0963121206 -0.203199998)
(0.0821759179 -0.0968303606 0.203199998)
(0.0821759179 -0.0968303606 -0.203199998)
(0.0815658867 -0.0973447859 0.203199998)
(0.0815658867 -0.0973447859 -0.203199998)
(0.0809526369 -0.0978553668 0.203199998)
(0.0809526369 -0.0978553668 -0.203199998)
(0.0803361908 -0.0983620733 0.203199998)
(0.0803361908 -0.0983620733 -0.203199998)
(0.0797165632 -0.0988649055 0.203199998)
(0.0797165632 -0.0988649055 -0.203199998)
(0.0790938064 -0.0993638337 0.203199998)
(0.0790938064 -0.0993638337 -0.203199998)
(0.078467913 -0.0998588428 0.203199998)
(0.078467913 -0.0998588428 -0.203199998)
(0.077838935 -0.100349896 0.203199998)
(0.077838935 -0.100349896 -0.203199998)
(0.0772068724 -0.100837 0.203199998)
(0.0772068724 -0.100837 -0.203199998)
(0.0765717626 -0.101320118 0.203199998)
(0.0765717626 -0.101320118 -0.203199998)
(0.0759336352 -0.101799235 0.203199998)
(0.0759336352 -0.101799235 -0.203199998)
(0.0752924979 -0.102274336 0.203199998)
(0.0752924979 -0.102274336 -0.203199998)
(0.0746484026 -0.102745399 0.203199998)
(0.0746484026 -0.102745399 -0.203199998)
(0.0740013495 -0.103212401 0.203199998)
(0.0740013495 -0.103212401 -0.203199998)
(0.0733513907 -0.103675336 0.203199998)
(0.0733513907 -0.103675336 -0.203199998)
(0.0726985261 -0.104134172 0.203199998)
(0.0726985261 -0.104134172 -0.203199998)
(0.0720427856 -0.104588896 0.203199998)
(0.0720427856 -0.104588896 -0.203199998)
(0.0713842064 -0.1050395 0.203199998)
(0.0713842064 -0.1050395 -0.203199998)
(0.0707228109 -0.105485946 0.203199998)
(0.0707228109 -0.105485946 -0.203199998)
(0.0700586215 -0.105928235 0.203199998)
(0.0700586215 -0.105928235 -0.203199998)
(0.0693916604 -0.106366336 0.203199998)
(0.0693916604 -0.106366336 -0.203199998)
(0.0687219724 -0.106800243 0.203199998)
(0.0687219724 -0.106800243 -0.203199998)
(0.0680495575 -0.107229933 0.203199998)
(0.0680495575 -0.107229933 -0.203199998)
(0.0673744604 -0.107655391 0.203199998)
(0.0673744604 -0.107655391 -0.203199998)
(0.0666967109 -0.108076595 0.203199998)
(0.0666967109 -0.108076595 -0.203199998)
(0.0660163239 -0.108493529 0.203199998)
(0.0660163239 -0.108493529 -0.203199998)
(0.0653333291 -0.108906187 0.203199998)
(0.0653333291 -0.108906187 -0.203199998)
(0.0646477565 -0.109314546 0.203199998)
(0.0646477565 -0.109314546 -0.203199998)
(0.0639596358 -0.109718584 0.203199998)
(0.0639596358 -0.109718584 -0.203199998)
(0.0632689819 -0.110118292 0.203199998)
(0.0632689819 -0.110118292 -0.203199998)
(0.062575832 -0.11051365 0.203199998)
(0.062575832 -0.11051365 -0.203199998)
(0.0618802123 -0.110904649 0.203199998)
(0.0618802123 -0.110904649 -0.203199998)
(0.0611821488 -0.111291267 0.203199998)
(0.0611821488 -0.111291267 -0.203199998)
(0.0604816675 -0.111673489 0.203199998)
(0.0604816675 -0.111673489 -0.203199998)
(0.0597788021 -0.112051308 0.203199998)
(0.0597788021 -0.112051308 -0.203199998)
(0.0590735786 -0.112424701 0.203199998)
(0.0590735786 -0.112424701 -0.203199998)
(0.058366023 -0.112793654 0.203199998)
(0.058366023 -0.112793654 -0.203199998)
(0.0576561578 -0.113158159 0.203199998)
(0.0576561578 -0.113158159 -0.203199998)
(0.0569440238 -0.113518193 0.203199998)
(0.0569440238 -0.113518193 -0.203199998)
(0.0562296361 -0.113873743 0.203199998)
(0.0562296361 -0.113873743 -0.203199998)
(0.0555130281 -0.114224799 0.203199998)
(0.0555130281 -0.114224799 -0.203199998)
(0.0547942333 -0.114571348 0.203199998)
(0.0547942333 -0.114571348 -0.203199998)
(0.0540732704 -0.114913374 0.203199998)
(0.0540732704 -0.114913374 -0.203199998)
(0.0533501729 -0.115250856 0.203199998)
(0.0533501729 -0.115250856 -0.203199998)
(0.0526249744 -0.115583792 0.203199998)
(0.0526249744 -0.115583792 -0.203199998)
(0.0518976934 -0.115912169 0.203199998)
(0.0518976934 -0.115912169 -0.203199998)
(0.0511683635 -0.116235964 0.203199998)
(0.0511683635 -0.116235964 -0.203199998)
(0.0504370145 -0.116555177 0.203199998)
(0.0504370145 -0.116555177 -0.203199998)
(0.0497036725 -0.116869777 0.203199998)
(0.0497036725 -0.116869777 -0.203199998)
(0.0489683747 -0.117179774 0.203199998)
(0.0489683747 -0.117179774 -0.203199998)
(0.0482311361 -0.117485143 0.203199998)
(0.0482311361 -0.117485143 -0.203199998)
(0.0474919975 -0.117785871 0.203199998)
(0.0474919975 -0.117785871 -0.203199998)
(0.0467509814 -0.11808195 0.203199998)
(0.0467509814 -0.11808195 -0.203199998)
(0.0460081212 -0.118373364 0.203199998)
(0.0460081212 -0.118373364 -0.203199998)
(0.0452634469 -0.118660107 0.203199998)
(0.0452634469 -0.118660107 -0.203199998)
(0.0445169806 -0.118942164 0.203199998)
(0.0445169806 -0.118942164 -0.203199998)
(0.0437687598 -0.119219534 0.203199998)
(0.0437687598 -0.119219534 -0.203199998)
(0.0430188105 -0.119492188 0.203199998)
(0.0430188105 -0.119492188 -0.203199998)
(0.0422671661 -0.119760126 0.203199998)
(0.0422671661 -0.119760126 -0.203199998)
(0.041513849 -0.12002334 0.203199998)
(0.041513849 -0.12002334 -0.203199998)
(0.0407588929 -0.120281808 0.203199998)
(0.0407588929 -0.120281808 -0.203199998)
(0.0400023274 -0.12053553 0.203199998)
(0.0400023274 -0.12053553 -0.203199998)
(0.0392441824 -0.120784491 0.203199998)
(0.0392441824 -0.120784491 -0.203199998)
(0.0384844914 -0.121028699 0.203199998)
(0.0384844914 -0.121028699 -0.203199998)
(0.0377232805 -0.121268116 0.203199998)
(0.0377232805 -0.121268116 -0.203199998)
(0.0369605795 -0.12150275 0.203199998)
(0.0369605795 -0.12150275 -0.203199998)
(0.0361964181 -0.121732578 0.203199998)
(0.0361964181 -0.121732578 -0.203199998)
(0.0354308262 -0.121957608 0.203199998)
(0.0354308262 -0.121957608 -0.203199998)
(0.0346638411 -0.122177817 0.203199998)
(0.0346638411 -0.122177817 -0.203199998)
(0.0338954851 -0.122393213 0.203199998)
(0.0338954851 -0.122393213 -0.203199998)
(0.033125788 -0.122603767 0.203199998)
(0.033125788 -0.122603767 -0.203199998)
(0.032354787 -0.122809485 0.203199998)
(0.032354787 -0.122809485 -0.203199998)
(0.0315825045 -0.123010352 0.203199998)
(0.0315825045 -0.123010352 -0.203199998)
(0.0308089778 -0.12320637 0.203199998)
(0.0308089778 -0.12320637 -0.203199998)
(0.0300342329 -0.123397514 0.203199998)
(0.0300342329 -0.123397514 -0.203199998)
(0.0292583052 -0.123583786 0.203199998)
(0.0292583052 -0.123583786 -0.203199998)
(0.0284812208 -0.123765185 0.203199998)
(0.0284812208 -0.123765185 -0.203199998)
(0.0277030114 -0.123941697 0.203199998)
(0.0277030114 -0.123941697 -0.203199998)
(0.0269237086 -0.124113314 0.203199998)
(0.0269237086 -0.124113314 -0.203199998)
(0.0261433441 -0.124280035 0.203199998)
(0.0261433441 -0.124280035 -0.203199998)
(0.0253619459 -0.124441847 0.203199998)
(0.0253619459 -0.124441847 -0.203199998)
(0.0245795455 -0.124598749 0.203199998)
(0.0245795455 -0.124598749 -0.203199998)
(0.0237961765 -0.124750726 0.203199998)
(0.0237961765 -0.124750726 -0.203199998)
(0.0230118688 -0.124897778 0.203199998)
(0.0230118688 -0.124897778 -0.203199998)
(0.0222266503 -0.125039905 0.203199998)
(0.0222266503 -0.125039905 -0.203199998)
(0.0214405563 -0.125177085 0.203199998)
(0.0214405563 -0.125177085 -0.203199998)
(0.0206536166 -0.125309333 0.203199998)
(0.0206536166 -0.125309333 -0.203199998)
(0.0198658574 -0.125436634 0.203199998)
(0.0198658574 -0.125436634 -0.203199998)
(0.0190773197 -0.125558987 0.203199998)
(0.0190773197 -0.125558987 -0.203199998)
(0.0182880238 -0.125676364 0.203199998)
(0.0182880238 -0.125676364 -0.203199998)
(0.0174980089 -0.125788793 0.203199998)
(0.0174980089 -0.125788793 -0.203199998)
(0.0167073011 -0.12589626 0.203199998)
(0.0167073011 -0.12589626 -0.203199998)
(0.015915934 -0.12599875 0.203199998)
(0.015915934 -0.12599875 -0.203199998)
(0.0151239401 -0.126096264 0.203199998)
(0.0151239401 -0.126096264 -0.203199998)
(0.0143313482 -0.1261888 0.203199998)
(0.0143313482 -0.1261888 -0.203199998)
(0.0135381902 -0.126276359 0.203199998)
(0.0135381902 -0.126276359 -0.203199998)
(0.0127444984 -0.126358926 0.203199998)
(0.0127444984 -0.126358926 -0.203199998)
(0.0119503029 -0.126436502 0.203199998)
(0.0119503029 -0.126436502 -0.203199998)
(0.011155636 -0.1265091 0.203199998)
(0.011155636 -0.1265091 -0.203199998)
(0.0103605287 -0.126576707 0.203199998)
(0.0103605287 -0.126576707 -0.203199998)
(0.0095650116 -0.126639292 0.203199998)
(0.0095650116 -0.126639292 -0.203199998)
(0.0087691173 -0.1266969 0.203199998)
(0.0087691173 -0.1266969 -0.203199998)
(0.00797287747 -0.126749501 0.203199998)
(0.00797287747 -0.126749501 -0.203199998)
(0.0071763224 -0.126797095 0.203199998)
(0.0071763224 -0.126797095 -0.203199998)
(0.00637948373 -0.126839682 0.203199998)
(0.00637948373 -0.126839682 -0.203199998)
(0.00558239361 -0.126877248 0.203199998)
(0.00558239361 -0.126877248 -0.203199998)
(0.00478508277 -0.126909822 0.203199998)
(0.00478508277 -0.126909822 -0.203199998)
(0.00398758333 -0.126937389 0.203199998)
(0.00398758333 -0.126937389 -0.203199998)
(0.00318992627 -0.126959935 0.203199998)
(0.00318992627 -0.126959935 -0.203199998)
(0.00239214324 -0.126977473 0.203199998)
(0.00239214324 -0.126977473 -0.203199998)
(0.00159426592 -0.12698999 0.203199998)
(0.00159426592 -0.12698999 -0.203199998)
(0.000796325621 -0.126997501 0.203199998)
(0.000796325621 -0.126997501 -0.203199998)
(-1.64617086e-06 -0.127000004 0.203199998)
(-1.64617086e-06 -0.127000004 -0.203199998)
(-0.000799617846 -0.126997486 0.203199998)
(-0.000799617846 -0.126997486 -0.203199998)
(-0.00159755803 -0.126989961 0.203199998)
(-0.00159755803 -0.126989961 -0.203199998)
(-0.002395435 -0.126977414 0.203199998)
(-0.002395435 -0.126977414 -0.203199998)
(-0.00319321756 -0.12695986 0.203199998)
(-0.00319321756 -0.12695986 -0.203199998)
(-0.00399087416 -0.126937285 0.203199998)
(-0.00399087416 -0.126937285 -0.203199998)
(-0.00478837313 -0.126909703 0.203199998)
(-0.00478837313 -0.126909703 -0.203199998)
(-0.00558568304 -0.126877114 0.203199998)
(-0.00558568304 -0.126877114 -0.203199998)
(-0.00638277223 -0.126839504 0.203199998)
(-0.00638277223 -0.126839504 -0.203199998)
(-0.0071796095 -0.126796901 0.203199998)
(-0.0071796095 -0.126796901 -0.203199998)
(-0.00797616318 -0.126749292 0.203199998)
(-0.00797616318 -0.126749292 -0.203199998)
(-0.008772403 -0.126696661 0.203199998)
(-0.008772403 -0.126696661 -0.203199998)
(-0.00956829544 -0.126639053 0.203199998)
(-0.00956829544 -0.126639053 -0.203199998)
(-0.0103638098 -0.126576424 0.203199998)
(-0.0103638098 -0.126576424 -0.203199998)
(-0.0111589152 -0.126508817 0.203199998)
(-0.0111589152 -0.126508817 -0.203199998)
(-0.0119535802 -0.126436204 0.203199998)
(-0.0119535802 -0.126436204 -0.203199998)
(-0.0127477748 -0.126358598 0.203199998)
(-0.0127477748 -0.126358598 -0.203199998)
(-0.0135414638 -0.126276001 0.203199998)
(-0.0135414638 -0.126276001 -0.203199998)
(-0.014334619 -0.126188427 0.203199998)
(-0.014334619 -0.126188427 -0.203199998)
(-0.015127209 -0.126095861 0.203199998)
(-0.015127209 -0.126095861 -0.203199998)
(-0.0159192011 -0.125998333 0.203199998)
(-0.0159192011 -0.125998333 -0.203199998)
(-0.0167105645 -0.125895828 0.203199998)
(-0.0167105645 -0.125895828 -0.203199998)
(-0.0175012704 -0.125788331 0.203199998)
(-0.0175012704 -0.125788331 -0.203199998)
(-0.0182912815 -0.125675902 0.203199998)
(-0.0182912815 -0.125675902 -0.203199998)
(-0.0190805737 -0.125558481 0.203199998)
(-0.0190805737 -0.125558481 -0.203199998)
(-0.0198691115 -0.125436112 0.203199998)
(-0.0198691115 -0.125436112 -0.203199998)
(-0.0206568632 -0.125308797 0.203199998)
(-0.0206568632 -0.125308797 -0.203199998)
(-0.021443801 -0.125176534 0.203199998)
(-0.021443801 -0.125176534 -0.203199998)
(-0.0222298931 -0.125039324 0.203199998)
(-0.0222298931 -0.125039324 -0.203199998)
(-0.0230151061 -0.124897182 0.203199998)
(-0.0230151061 -0.124897182 -0.203199998)
(-0.0237994101 -0.1247501 0.203199998)
(-0.0237994101 -0.1247501 -0.203199998)
(-0.0245827753 -0.124598108 0.203199998)
(-0.0245827753 -0.124598108 -0.203199998)
(-0.0253651701 -0.124441192 0.203199998)
(-0.0253651701 -0.124441192 -0.203199998)
(-0.0261465646 -0.12427935 0.203199998)
(-0.0261465646 -0.12427935 -0.203199998)
(-0.0269269254 -0.124112613 0.203199998)
(-0.0269269254 -0.124112613 -0.203199998)
(-0.0277062245 -0.123940974 0.203199998)
(-0.0277062245 -0.123940974 -0.203199998)
(-0.0284844283 -0.123764448 0.203199998)
(-0.0284844283 -0.123764448 -0.203199998)
(-0.029261509 -0.123583034 0.203199998)
(-0.029261509 -0.123583034 -0.203199998)
(-0.0300374329 -0.123396732 0.203199998)
(-0.0300374329 -0.123396732 -0.203199998)
(-0.0308121704 -0.123205565 0.203199998)
(-0.0308121704 -0.123205565 -0.203199998)
(-0.0315856934 -0.123009525 0.203199998)
(-0.0315856934 -0.123009525 -0.203199998)
(-0.0323579684 -0.122808643 0.203199998)
(-0.0323579684 -0.122808643 -0.203199998)
(-0.0331289656 -0.12260291 0.203199998)
(-0.0331289656 -0.12260291 -0.203199998)
(-0.0338986553 -0.122392327 0.203199998)
(-0.0338986553 -0.122392327 -0.203199998)
(-0.0346670076 -0.122176923 0.203199998)
(-0.0346670076 -0.122176923 -0.203199998)
(-0.035433989 -0.121956684 0.203199998)
(-0.035433989 -0.121956684 -0.203199998)
(-0.0361995734 -0.121731639 0.203199998)
(-0.0361995734 -0.121731639 -0.203199998)
(-0.0369637273 -0.121501788 0.203199998)
(-0.0369637273 -0.121501788 -0.203199998)
(-0.0377264209 -0.12126714 0.203199998)
(-0.0377264209 -0.12126714 -0.203199998)
(-0.0384876281 -0.121027701 0.203199998)
(-0.0384876281 -0.121027701 -0.203199998)
(-0.0392473191 -0.120783478 0.203199998)
(-0.0392473191 -0.120783478 -0.203199998)
(-0.0400054567 -0.120534495 0.203199998)
(-0.0400054567 -0.120534495 -0.203199998)
(-0.040762011 -0.120280758 0.203199998)
(-0.040762011 -0.120280758 -0.203199998)
(-0.0415169597 -0.12002226 0.203199998)
(-0.0415169597 -0.12002226 -0.203199998)
(-0.0422702692 -0.119759031 0.203199998)
(-0.0422702692 -0.119759031 -0.203199998)
(-0.0430219099 -0.119491078 0.203199998)
(-0.0430219099 -0.119491078 -0.203199998)
(-0.0437718518 -0.119218394 0.203199998)
(-0.0437718518 -0.119218394 -0.203199998)
(-0.0445200652 -0.118941016 0.203199998)
(-0.0445200652 -0.118941016 -0.203199998)
(-0.045266524 -0.118658938 0.203199998)
(-0.045266524 -0.118658938 -0.203199998)
(-0.0460111909 -0.118372172 0.203199998)
(-0.0460111909 -0.118372172 -0.203199998)
(-0.0467540435 -0.118080743 0.203199998)
(-0.0467540435 -0.118080743 -0.203199998)
(-0.0474950522 -0.117784642 0.203199998)
(-0.0474950522 -0.117784642 -0.203199998)
(-0.0482341833 -0.117483892 0.203199998)
(-0.0482341833 -0.117483892 -0.203199998)
(-0.0489714108 -0.117178507 0.203199998)
(-0.0489714108 -0.117178507 -0.203199998)
(-0.0497067049 -0.116868488 0.203199998)
(-0.0497067049 -0.116868488 -0.203199998)
(-0.0504400358 -0.116553865 0.203199998)
(-0.0504400358 -0.116553865 -0.203199998)
(-0.0511713773 -0.116234645 0.203199998)
(-0.0511713773 -0.116234645 -0.203199998)
(-0.051900696 -0.115910821 0.203199998)
(-0.051900696 -0.115910821 -0.203199998)
(-0.0526279658 -0.115582429 0.203199998)
(-0.0526279658 -0.115582429 -0.203199998)
(-0.0533531606 -0.11524947 0.203199998)
(-0.0533531606 -0.11524947 -0.203199998)
(-0.0540762506 -0.114911966 0.203199998)
(-0.0540762506 -0.114911966 -0.203199998)
(-0.0547971986 -0.114569925 0.203199998)
(-0.0547971986 -0.114569925 -0.203199998)
(-0.0555159897 -0.114223354 0.203199998)
(-0.0555159897 -0.114223354 -0.203199998)
(-0.0562325865 -0.113872282 0.203199998)
(-0.0562325865 -0.113872282 -0.203199998)
(-0.0569469631 -0.113516718 0.203199998)
(-0.0569469631 -0.113516718 -0.203199998)
(-0.0576590896 -0.113156661 0.203199998)
(-0.0576590896 -0.113156661 -0.203199998)
(-0.0583689436 -0.112792142 0.203199998)
(-0.0583689436 -0.112792142 -0.203199998)
(-0.0590764917 -0.112423167 0.203199998)
(-0.0590764917 -0.112423167 -0.203199998)
(-0.0597817115 -0.112049758 0.203199998)
(-0.0597817115 -0.112049758 -0.203199998)
(-0.0604845658 -0.111671925 0.203199998)
(-0.0604845658 -0.111671925 -0.203199998)
(-0.0611850321 -0.11128968 0.203199998)
(-0.0611850321 -0.11128968 -0.203199998)
(-0.0618830845 -0.11090304 0.203199998)
(-0.0618830845 -0.11090304 -0.203199998)
(-0.062578693 -0.110512026 0.203199998)
(-0.062578693 -0.110512026 -0.203199998)
(-0.0632718354 -0.110116646 0.203199998)
(-0.0632718354 -0.110116646 -0.203199998)
(-0.0639624745 -0.109716922 0.203199998)
(-0.0639624745 -0.109716922 -0.203199998)
(-0.0646505877 -0.109312862 0.203199998)
(-0.0646505877 -0.109312862 -0.203199998)
(-0.0653361529 -0.108904488 0.203199998)
(-0.0653361529 -0.108904488 -0.203199998)
(-0.0660191402 -0.108491823 0.203199998)
(-0.0660191402 -0.108491823 -0.203199998)
(-0.0666995123 -0.108074866 0.203199998)
(-0.0666995123 -0.108074866 -0.203199998)
(-0.0673772544 -0.10765364 0.203199998)
(-0.0673772544 -0.10765364 -0.203199998)
(-0.0680523366 -0.107228167 0.203199998)
(-0.0680523366 -0.107228167 -0.203199998)
(-0.0687247366 -0.106798463 0.203199998)
(-0.0687247366 -0.106798463 -0.203199998)
(-0.0693944246 -0.106364533 0.203199998)
(-0.0693944246 -0.106364533 -0.203199998)
(-0.0700613707 -0.105926417 0.203199998)
(-0.0700613707 -0.105926417 -0.203199998)
(-0.0707255378 -0.105484121 0.203199998)
(-0.0707255378 -0.105484121 -0.203199998)
(-0.0713869259 -0.105037645 0.203199998)
(-0.0713869259 -0.105037645 -0.203199998)
(-0.0720454976 -0.104587026 0.203199998)
(-0.0720454976 -0.104587026 -0.203199998)
(-0.0727012157 -0.104132287 0.203199998)
(-0.0727012157 -0.104132287 -0.203199998)
(-0.0733540729 -0.103673428 0.203199998)
(-0.0733540729 -0.103673428 -0.203199998)
(-0.0740040317 -0.103210486 0.203199998)
(-0.0740040317 -0.103210486 -0.203199998)
(-0.0746510699 -0.102743462 0.203199998)
(-0.0746510699 -0.102743462 -0.203199998)
(-0.0752951577 -0.102272384 0.203199998)
(-0.0752951577 -0.102272384 -0.203199998)
(-0.0759362727 -0.101797268 0.203199998)
(-0.0759362727 -0.101797268 -0.203199998)
(-0.0765743926 -0.101318128 0.203199998)
(-0.0765743926 -0.101318128 -0.203199998)
(-0.0772094801 -0.100834996 0.203199998)
(-0.0772094801 -0.100834996 -0.203199998)
(-0.0778415278 -0.100347877 0.203199998)
(-0.0778415278 -0.100347877 -0.203199998)
(-0.0784705058 -0.0998568013 0.203199998)
(-0.0784705058 -0.0998568013 -0.203199998)