/*--------------------------------*- C++ -*----------------------------------*\
| =========                 |                                                 |
| \\      /  F ield         | OpenFOAM: The Open Source CFD Toolbox           |
|  \\    /   O peration     | Version:  2.3.0                                 |
|   \\  /    A nd           | Web:      www.OpenFOAM.org                      |
|    \\/     M anipulation  |                                                 |
\*---------------------------------------------------------------------------*/
FoamFile
{
    version     2.0;
    format      ascii;
    class       volScalarField;
    location    "0";
    object      CRmax;
}
// * * * * * * * * * * * * * * * * * * * * * * * * * * * * * * * * * * * * * //

dimensions      [ 1 -3 0 0 0 0 0 ];

internalField   uniform 2;

boundaryField
{
	/*mirror
	{
		type symmetryPlane;
	}*/
	frontAndBack
    {
        type            empty;
    }
	wall//_patch0
    {
    	type				zeroGradient;
    	value				uniform 0;
    }
    outlet//_patch0
    {
    	type				zeroGradient;
    	value				uniform 0;
    }
    inlet//_patch0
    {     
    	/*type				fixedValue;
    	value				uniform 2.5;*/
    	type				zeroGradient;/*
    	change           	table
		(
			(0 0)
        	 (3600 0)
        	 (3660 1)
           	 (1891800 1)
        	 (1891860 0)
			 (1897200 0)
			 (1897260 1)
			 (3094200 1)
			 (3094260 0)
			 (3099600 0)
			 (3099660 1)
			 (4554000 1)
			 (4554060 0)
			 (4559400 0)
			 (4559460 1)
			 (6100200 1)
			 (6100260 0)
			 (6105600 0)
			 (6105660 1)  // through Oct 2
			 
		);
		uniformValue           table
		(
			(0  .975)
			(3600 	.975)
			(3660 0)
           	 (1891800 0)
        	 (1891860 0)
			 (1897200 0)
			 (1897260 0)
			 (3094200 0)
			 (3094260 0)
			 (3099600 0)
			 (3099660 0)
			 (4554000 0)
			 (4554060 0)
			 (4559400 0)
			 (4559460 0)
			 (6100200 0)
			 (6100260 0)
			 (6105600 0)
			 (6105660 0)  // through Oct 2
		);*/
    }
        
}


// ************************************************************************* //
