/*--------------------------------*- C++ -*----------------------------------*\
| =========                 |                                                 |
| \\      /  F ield         | OpenFOAM: The Open Source CFD Toolbox           |
|  \\    /   O peration     | Version:  2.3.0                                 |
|   \\  /    A nd           | Web:      www.OpenFOAM.org                      |
|    \\/     M anipulation  |                                                 |
\*---------------------------------------------------------------------------*/
FoamFile
{
    version     2.0;
    format      ascii;
    class       volTensorField;
    location    "0";
    object      D;
}
// * * * * * * * * * * * * * * * * * * * * * * * * * * * * * * * * * * * * * //

dimensions      [ 0 2 -1 0 0 0 0 ];

internalField   uniform ( 0.0001 1e-05 1e-05 1e-05 0.0001 1e-07 1e-05 1e-05 0.0001 );

boundaryField
{
	mirror
	{
		type symmetryPlane;
	}
	frontAndBack
    {
        type            empty;
    }
    ".*"
    {
        type            zeroGradient;
    }
}


// ************************************************************************* //
