/*--------------------------------*- C++ -*----------------------------------*\
| =========                 |                                                 |
| \\      /  F ield         | OpenFOAM: The Open Source CFD Toolbox           |
|  \\    /   O peration     | Version:  2.3.0                                 |
|   \\  /    A nd           | Web:      www.OpenFOAM.org                      |
|    \\/     M anipulation  |                                                 |
\*---------------------------------------------------------------------------*/
FoamFile
{
    version     2.0;
    format      ascii;
    class       volScalarField;
    object      p;
}
// * * * * * * * * * * * * * * * * * * * * * * * * * * * * * * * * * * * * * //

dimensions      [1 -1 -2 0 0 0 0];

internalField   uniform 0;

boundaryField
{
    mirror
	{
		type symmetryPlane;
	}
	frontAndBack
    {
        type            empty;
    }
    wall
    {
      	//type            closedP_fixed;
       	//change			1;
		//uniformValue	0;
		type            fixedFluxPressure;
        
    }

    inlet
    {
        type            fixedFluxPressure;
        value           uniform 0;
    }
    outlet
    {
        type            fixedFluxPressure;
        value           uniform 0;
    }
}

// ************************************************************************* //
