/*--------------------------------*- C++ -*----------------------------------*\
| =========                 |                                                 |
| \\      /  F ield         | OpenFOAM: The Open Source CFD Toolbox           |
|  \\    /   O peration     | Version:  2.3.0                                 |
|   \\  /    A nd           | Web:      www.OpenFOAM.org                      |
|    \\/     M anipulation  |                                                 |
\*---------------------------------------------------------------------------*/
FoamFile
{
    version     2.0;
    format      ascii;
    class       volScalarField;
    location    "0";
    object      C;
}
// * * * * * * * * * * * * * * * * * * * * * * * * * * * * * * * * * * * * * //

dimensions      [ 0 0 0 1 0 0 0 ];

internalField   uniform 293;

boundaryField
{
	mirror
	{
		type symmetryPlane;
	}
	frontAndBack
    {
        type            empty;
    }
	wall//_patch0
    {
    	type				zeroGradient;
    	value				uniform 1e-16;
    }
    outlet//_patch0
    {
    	type				zeroGradient;
    	value				uniform 1e-16;
    }
    inlet//_patch0
    {     
    	type				zeroGradient;
    }
        
}


// ************************************************************************* //
