/*--------------------------------*- C++ -*----------------------------------*\
| =========                 |                                                 |
| \\      /  F ield         | OpenFOAM: The Open Source CFD Toolbox           |
|  \\    /   O peration     | Version:  2.3.0                                 |
|   \\  /    A nd           | Web:      www.OpenFOAM.org                      |
|    \\/     M anipulation  |                                                 |
\*---------------------------------------------------------------------------*/
FoamFile
{
    version     2.0;
    format      ascii;
    class       volVectorField;
    object      U;
}
// * * * * * * * * * * * * * * * * * * * * * * * * * * * * * * * * * * * * * //

dimensions      [0 1 -1 0 0 0 0];

internalField   uniform (0 0 0);

boundaryField
{
    mirror
	{
		type symmetryPlane;
	}
	frontAndBack
    {
        type            empty;
    }
    wall
    {
        type            slip;
        value           uniform (0 0 0);
    }
    inlet
    {
		type            slip;
        value           uniform (0 0 0);
    	//type		fixedValue;
    	//value		uniform (0 0 0);
        /*type            flowRateInletVelocity;
        volumetricFlowRate  table
        (
        	(0 0)
        	 //(3600 5.5556e-6)
        	 //(3601 0)
        	 (5400 0)
        	 (5401 0)			 
       	);*/
    }
   outlet
    {
		type            slip;
        value           uniform (0 0 0);
        /*type            inletOutlet;
        value           uniform (0 0 0);
        inletValue      uniform (0 0 0);*/
    }
   /* outlet
    {
       	type            flowRateInletVelocity;
        volumetricFlowRate  table
        (
        	 (0 -5.5556e-6)
        	 //(3600 -5.5556e-6)
        	 //(3601 0)
        	 (5400 -5.5556e-6)
        	 (5401 0)
           	 (1891800 0)
        	 (1891860 -5.5556e-6)
			 (1897200 -5.5556e-6)
			 (1897260 0)
			 (3094200 0)
			 (3094260 -5.5556e-6)
			 (3099600 -5.5556e-6)
			 (3099660 0)
			 (4554000 0)
			 (4554060 -5.5556e-6)
			 (4559400 -5.5556e-6)
			 (4559460 0)
			 (6100200 0)
			 (6100260 -5.5556e-6)
			 (6105600 -5.5556e-6)
			 (6105660 0)  // through Oct 2
			 (7309800 0)
			 (7309860 -5.5556e-6)
			 (7315200 -5.5556e-6)
			 (7315260 0)
			 (8519400 0)
			 (8519460 -5.5556e-6)
			 (8524800 -5.5556e-6)
			 (8524860 0)
			 (9729000 0)
			 (9729060 -5.5556e-6)
			 (9734400 -5.5556e-6)
			 (9734460 0)
			 (11197800 0)
			 (11197860 -5.5556e-6)
			 (11203200 -5.5556e-6)
			 (11203260 0)
			 (12148200 0)
			 (12148260 -5.5556e-6)
			 (12153600 -5.5556e-6)
			 (12153660 0)
			 (13617000 0)
			 (13617060 -5.5556e-6)
			 (13622400 -5.5556e-6)
			 (13622460 0)
			 (14567400 0)
			 (14567460 -5.5556e-6)
			 (14572800 -5.5556e-6)
			 (14572860 0)
			 (15517800 0)
			 (15517860 -5.5556e-6)
			 (15523200 -5.5556e-6)
			 (15523260 0) // through Jan 19th last day of pumping
			 
       	);
    }*/
}

// ************************************************************************* //
