/*--------------------------------*- C++ -*----------------------------------*\
| =========                 |                                                 |
| \\      /  F ield         | OpenFOAM: The Open Source CFD Toolbox           |
|  \\    /   O peration     | Version:  2.3.0                                 |
|   \\  /    A nd           | Web:      www.OpenFOAM.org                      |
|    \\/     M anipulation  |                                                 |
\*---------------------------------------------------------------------------*/
FoamFile
{
    version     2.0;
    format      ascii;
    class       dictionary;
    location    "system";
    object      controlDict;
}
// * * * * * * * * * * * * * * * * * * * * * * * * * * * * * * * * * * * * * //

application     GWpisoFoam;

startFrom       startTime;

startTime       0;

stopAt          endTime;

endTime        4320000;//50 days Jan 28 - Mar 19

deltaT          900;//15 min 

writeControl    timeStep;

writeInterval   96;// every day 

purgeWrite      0;

writeFormat     ascii;

writePrecision  9;

writeCompression off;

timeFormat      general;

timePrecision   9;

graphFormat     raw;

runTimeModifiable true;

functions
{ 
    probes
    {
        type            probes;
        functionObjectLibs ("libsampling.so");
        outputControl   outputTime;
        probeLocations
        (
			(0 0 0)
			(0 -0.0026 0)
			(0 -0.0052 0)
			(0 -0.0078 0)
			(0 -0.0104 0)
			(0 -0.013 0)
			(0 -0.0156 0)
			(0 -0.0182 0)
			(0 -0.0208 0)
			(0 -0.0234 0)
			(0 -0.026 0)
			(0 -0.0286 0)
			(0 -0.0312 0)
			(0 -0.0338 0)
			(0 -0.0364 0)
			(0 -0.039 0)
			(0 -0.0416 0)
			(0 -0.0442 0)
			(0 -0.0468 0)
			(0 -0.0494 0)
			(0 -0.052 0)
			(0 -0.0546 0)
			(0 -0.0572 0)
			(0 -0.0598 0)
			(0 -0.0624 0)
			(0 -0.065 0)
			(0 -0.0676 0)
			(0 -0.0702 0)
			(0 -0.0728 0)
			(0 -0.0754 0)
			(0 -0.078 0)
			(0 -0.0806 0)
			(0 -0.0832 0)
			(0 -0.0858 0)
			(0 -0.0884 0)
			(0 -0.091 0)
			(0 -0.0936 0)
			(0 -0.0962 0)
			(0 -0.0988 0)
			(0 -0.1014 0)
			(0 -0.104 0)
			(0 -0.1066 0)
			(0 -0.1092 0)
			(0 -0.1118 0)
			(0 -0.1144 0)
			(0 -0.117 0)
			(0 -0.1196 0)
			(0 -0.1222 0)
			(0 -0.1248 0)
			(0 -0.1274 0)
        );
        fixedLocations  false;
        fields
        (
            Ctot
        );
    }
}

// ************************************************************************* //
