/*--------------------------------*- C++ -*----------------------------------*\
| =========                 |                                                 |
| \\      /  F ield         | OpenFOAM: The Open Source CFD Toolbox           |
|  \\    /   O peration     | Version:  2.3.0                                 |
|   \\  /    A nd           | Web:      www.OpenFOAM.org                      |
|    \\/     M anipulation  |                                                 |
\*---------------------------------------------------------------------------*/
FoamFile
{
    version     2.0;
    format      ascii;
    class       dictionary;
    location    "system";
    object      controlDict;
}
// * * * * * * * * * * * * * * * * * * * * * * * * * * * * * * * * * * * * * //

application     GWrhoOsmosisPorousSimpleFoam;

startFrom       startTime;

startTime       0;

stopAt          endTime;

endTime        4320000;//50 days Jan 28 - Mar 19

deltaT          900;//15 min 

writeControl    timeStep;

writeInterval   96;// every day 

purgeWrite      0;

writeFormat     ascii;

writePrecision  9;

writeCompression off;

timeFormat      general;

timePrecision   9;

graphFormat     raw;

runTimeModifiable true;

functions
{ 
    probes
    {
        type            probes;
        functionObjectLibs ("libsampling.so");
        outputControl   outputTime;
        probeLocations
        (
			(0.0 0.00 0.0)
			(0.0 -0.014 0.0)
			(0.0 -0.033 0.0)
    		(0.0 -0.05 0.0)
    		(0.0 -0.075 0.0)
    		(0.0 -0.12 0.0)
        );
        fixedLocations  false;
        fields
        (
            Ctot
        );
    }
}

// ************************************************************************* //
