/*--------------------------------*- C++ -*----------------------------------*\
| =========                 |                                                 |
| \\      /  F ield         | OpenFOAM: The Open Source CFD Toolbox           |
|  \\    /   O peration     | Version:  2.3.0                                 |
|   \\  /    A nd           | Web:      www.OpenFOAM.org                      |
|    \\/     M anipulation  |                                                 |
\*---------------------------------------------------------------------------*/
FoamFile
{
    version     2.0;
    format      ascii;
    class       dictionary;
    location    "system";
    object      fvSchemes;
}
// * * * * * * * * * * * * * * * * * * * * * * * * * * * * * * * * * * * * * //

ddtSchemes
{
    default         Euler;
    ddt(Rf,C)		Euler;
}

gradSchemes
{
    default         Gauss linear;
}

divSchemes
{
    default         bounded Gauss upwind;

    /*div(phi,U)      bounded Gauss upwind;
    div((nuEff*dev(T(grad(U))))) Gauss linear;
    div((muEff*dev2(T(grad(U))))) Gauss linear;
    div(phi,epsilon) bounded Gauss upwind;
    div(phi,k)      bounded Gauss upwind;
    div(phi,C)		bounded Gauss upwind;
    div((phi|interpolate(rho)),C)		bounded Gauss upwind;
    div(phi,e)      bounded Gauss upwind;
    div(phi,Ekp)    bounded Gauss upwind;
    div(rhoPhi,U)	bounded Gauss upwind;*/
}

laplacianSchemes
{
    default          Gauss linear corrected;
}

interpolationSchemes
{
    default         linear;
}

snGradSchemes
{
    default         corrected;
}

fluxRequired
{
    default         no;
    p               ;
}


// ************************************************************************* //
