/*--------------------------------*- C++ -*----------------------------------*\
| =========                 |                                                 |
| \\      /  F ield         | OpenFOAM: The Open Source CFD Toolbox           |
|  \\    /   O peration     | Version:  2.3.0                                 |
|   \\  /    A nd           | Web:      www.OpenFOAM.org                      |
|    \\/     M anipulation  |                                                 |
\*---------------------------------------------------------------------------*/
FoamFile
{
    version     2.0;
    format      ascii;
    class       dictionary;
    location    "system";
    object      fvSolution;
}
// * * * * * * * * * * * * * * * * * * * * * * * * * * * * * * * * * * * * * //

solvers
{
    /*p
    {
        solver          GAMG;
        tolerance       1e-08;
        relTol          0.05;
        smoother        GaussSeidel;
        cacheAgglomeration on;
        nCellsInCoarsestLevel 20;
        agglomerator    faceAreaPair;
        mergeLevels     1;
    }
    
    "(U|k|epsilon)"
    {
        solver          smoothSolver;
        smoother        GaussSeidel;
        nSweeps         2;
        tolerance       1e-07;
        relTol          0.1;
    }*/
    p
    {
        solver          PCG;
        preconditioner  DIC;
        tolerance       1e-07;
        relTol          0.01;
    }

    pFinal
    {
        $p;
        tolerance       1e-07;
        relTol          0;
    }

    "(rho|U|h|k|epsilon|omega)"
    {
        solver          smoothSolver;
        smoother        symGaussSeidel;
        tolerance       1e-06;
        relTol          0.1;
    }

    "(rho|U|h|k|epsilon|omega)Final"
    {
        $U;
        tolerance       1e-06;
        relTol          0;
    }
	}
    C
    {
        solver          BICCG;
        preconditioner  DILU;
        tolerance       1e-07;
        relTol          0;
    }
    Cim
    {
        solver          smoothSolver;
        smoother        GaussSeidel;
        nSweeps         2;
        tolerance       1e-07;
        relTol          0.1;
    }
    Cip
    {
        solver          smoothSolver;
        smoother        GaussSeidel;
        nSweeps         2;
        tolerance       1e-07;
        relTol          0.1;
    }
    U
    {
        solver          smoothSolver;
        smoother        GaussSeidel;
        nSweeps         2;
        tolerance       1e-07;
        relTol          0.1;
    }

    e
    {
        solver          smoothSolver;
        smoother        symGaussSeidel;
        tolerance       1e-06;
        relTol          0.1;
    }

    "(k|epsilon)"
    {
        $U;
        tolerance       1e-07;
        relTol          0.1;
    }
}

/*SIMPLE
{
    //nUCorrectors    2;
    nNonOrthogonalCorrectors 0;
    rhoMin          rhoMin [ 1 -3 0 0 0 ] 0.5;
    rhoMax          rhoMax [ 1 -3 0 0 0 ] 1015.5;
    
    residualControl
    {
        p               0;
        U               0;
        e               0;

        // possibly check turbulence fields
        "(k|epsilon|omega)" 0;
    }
}*/
PIMPLE
{
    momentumPredictor   yes;
    transonic           no;
    nOuterCorrectors    50;
    nCorrectors         1;
    nNonOrthogonalCorrectors 0;
    consistent          yes;

    rhoMin          0.4;
    rhoMax          2.0;

    residualControl
    {
        "(U|k|epsilon)"
        {
            relTol          0;
            tolerance       0.0001;
        }
    }

    turbOnFinalIterOnly off;
}

relaxationFactors
{
    fields
    {
        p               0.3;
        rho				0.03;
    }
    equations
    {
        U               0.7;
        k               0.9;
        epsilon         0.9;
        "(k|epsilon)"   0.7;
        e               0.5;
    }
}


// ************************************************************************* //
