/*--------------------------------*- C++ -*----------------------------------*/

// File was generated by SwiftSnap, a Blender 3D addon.

FoamFile
{
    version     2.0;
    format      ascii;
    class       dictionary;
    object      snappyHexMeshDict;
}
// * * * * * * * * * * * * * * * * * * * * * * * * * * * * * * * * * * * * * //

castellatedMesh true;
snap            true;
addLayers       true;

geometry
{
    Open_Cyl.stl
    {
        type triSurfaceMesh;
        name wall;
    }
   /* Int_Cyl.stl
    {
    	type triSurfaceMesh;
    	name internal;
    }*/
};

castellatedMeshControls
{
    features
    (
    );
    refinementSurfaces
    {
        wall
        {
            level (0 0);
            patchInfo
            {
                type wall;
            }
        }
       /* internal
        {
            level (0 0);
            patchInfo
            {
                type empty;
            }
        }*/
    }
    refinementRegions
    {
    }
    locationInMesh (0 0 0);

    maxLocalCells 1000000;
    maxGlobalCells 2000000;
    minRefinementCells 0;
    nCellsBetweenLevels 1;
    resolveFeatureAngle 80.0;
    allowFreeStandingZoneFaces true;
}

snapControls
{
    nSmoothPatch 8;
    tolerance 1.0;
    nSolveIter 300;
    nRelaxIter 5;
    nFeatureSnapIter 10;
    implicitFeatureSnap false;
    explicitFeatureSnap true;
    multiRegionFeatureSnap false;
}

addLayersControls
{
    layers
    {
        "wall.*"
        {
            nSurfaceLayers 13;//10;
        }
      /*  "internal.*"
        {
        	nSurfaceLayers 1;
        }*/
    }

    relativeSizes false;
    expansionRatio 0.9;//1;
    finalLayerThickness 0.002;//0.00568;
    minThickness 0.002;//0.00568;
    nGrow 1;
    featureAngle 180;
    slipFeatureAngle 70;
    nRelaxIter 10;
    nSmoothSurfaceNormals 1;
    nSmoothNormals 3;
    nSmoothThickness 10;
    maxFaceThicknessRatio 0.81;
    maxThicknessToMedialRatio .8;
    minMedianAxisAngle 80;
    nBufferCellsNoExtrude 20;
    nLayerIter 200;
    nRelaxedIter 20;
}

meshQualityControls
{
    maxNonOrtho 65;
    maxBoundarySkewness 20;
    maxInternalSkewness 4;
    maxConcave 80;
    minVol 1e-13;
    minTetQuality 1e-30;
    minArea -1;
    minTwist 0.05;
    minDeterminant 0.001;
    minFaceWeight 0.05;
    minVolRatio 0.01;
    minTriangleTwist -1;
    nSmoothScale 4;
    errorReduction 0.75;
    relaxed
    {
        maxNonOrtho 75;
    }
}

debug 0;
mergeTolerance 1E-6;
// ************************************************************************* //
